#######################################################################
#
#                 Cambridge Crystallographic Data Centre
#                                CCDC
#
#######################################################################
#
# If this CIF has been generated from an entry in the Cambridge
# Structural Database, then it will include bibliographic, chemical,
# crystal, experimental, refinement or atomic coordinate data resulting
# from the CCDC's data processing and validation procedures.
#
#######################################################################

data_Predicted_ROY_on_ABABOV_0_0-3
_symmetry_cell_setting           monoclinic
_symmetry_space_group_name_H-M   'P 21/c'
_symmetry_Int_Tables_number      14
_space_group_name_Hall           '-P 2ybc'
loop_
_symmetry_equiv_pos_site_id
_symmetry_equiv_pos_as_xyz
1 x,y,z
2 -x,1/2+y,1/2-z
3 -x,-y,-z
4 x,1/2-y,1/2+z
_cell_length_a                   7.40456
_cell_length_b                   8.3101
_cell_length_c                   21.4946
_cell_angle_alpha                90
_cell_angle_beta                 99.2092
_cell_angle_gamma                90
_cell_volume                     1305.57
loop_
_atom_site_label
_atom_site_type_symbol
_atom_site_fract_x
_atom_site_fract_y
_atom_site_fract_z
C1 C 0.250921 0.0685996 0.235542
C2 C 0.233292 0.248213 0.23154
C3 C 0.299412 0.35996 0.274822
C4 C 0.257346 0.521514 0.255672
C5 C 0.155798 0.532358 0.195763
S1 S 0.116371 0.340528 0.165441
N1 N 0.0812436 0.656453 0.155957
C6 C -0.0419515 0.681612 0.0988398
C7 C -0.222442 0.635834 0.0859575
C8 C -0.333176 0.666469 0.0277471
C9 C -0.263183 0.745194 -0.0195096
C10 C -0.0799703 0.794504 -0.00887341
C11 C 0.0302393 0.764994 0.0482329
N2 N 0.215975 0.819899 0.0548159
O1 O 0.312367 0.837794 0.106097
O2 O 0.279804 0.850394 0.00451378
C12 C 0.319632 0.651013 0.297321
N3 N 0.373837 0.748744 0.333051
H10 H 0.320478 0.0226187 0.198309
H11 H 0.116876 0.012087 0.23079
H12 H 0.329023 0.032505 0.280615
H13 H 0.3779 0.329324 0.32032
H14 H 0.133142 0.762748 0.17441
H15 H -0.285375 0.573968 0.120797
H16 H -0.474953 0.627775 0.0199612
H17 H -0.348927 0.768722 -0.0644275
H18 H -0.0274437 0.856312 -0.0466581

_csp_structure_properties_calculated_density 1.31912       # _ccdc_csp_density_calc           1.31912
_csp_structure_ranking_calculation_type Optimisation       # _ccdc_csp_simulation_type        static
_csp_structure_properties_temperature 0.0                  # _ccdc_csp_simulation_temperature 0.0
# None                                                     # _ccdc_csp_conformer_generation_method 'Rigid Molecule'
# None                                                     # _ccdc_csp_conformer_clustering_method None
_csp_structure_generation_method 'Analogue Templates'      # _ccdc_csp_structure_generation_method 'Analogue Templates'
_csp_structure_generation_space_group_number_list all      # _ccdc_csp_structure_generation_space_group_selection all
_csp_structure_generation_software CSD-Theory              # _ccdc_csp_structure_generation_software CSD-Theory
_csp_structure_generation_software_version 2022.2.1        # _ccdc_csp_structure_generation_software_version 2022.2.1
_csp_structure_ranking_stage 0                             # _ccdc_csp_structure_generation_stage F
_csp_structure_ranking_method 'Forcefield'                 # _ccdc_csp_structure_optimisation_method 'Force Field'
_forcefield_electrostatic_term 'Exp-Six'                   # _ccdc_csp_structure_optimisation_force_field_description 'Knowledge based exp-6 potentials trained to reproduce CSD structures'
_forcefield_parameterization_method "Fitting to CSD"
_csp_structure_ranking_software CSD-Theory                 # _ccdc_csp_structure_optimisation_software CSD-Theory
_csp_structure_ranking_software_version 2022.2.1           # _ccdc_csp_structure_optimisation_software_version 2022.2.1
_csp_structure_ranking_stage 0                             # _ccdc_csp_structure_optimisation_stage F
# None                                                     # _ccdc_csp_structure_clustering_method None
_csp_structure_properties_relative_lattice_energy 0.0      # _ccdc_csp_classification_energy_lattice_relative 0
_csp_structure_properties_absolute_lattice_energy -182.299 # _ccdc_csp_classification_energy_lattice_absolute -182.299
# None                                                     # _ccdc_csp_reference_citation 'J. C. Cole, C. R. Groom, M. G. Read, I. Giangreco, P. McCabe, A. M. Reilly, G. P. Shields (2016). Generation of crystal structures using known crystal structures as analogues. Acta Crystallogr Sect B Struct Sci Cryst Eng Mater. 72(4):530-541.'
_csp_structure_ranking_software_citation https://doi.org/10.1107/S2052520616006533 # _ccdc_csp_reference_identifier   https://doi.org/10.1107/S2052520616006533
# None                                                     # _ccdc_csp_reference_category     'Structure generation'
